
OS:Version,
  {2927070b-6eb9-4035-9812-956ae4900e2f}, !- Handle
  3.11.0;                                 !- Version Identifier

OS:EvaporativeFluidCooler:SingleSpeed,
  {58894454-4789-4a9c-b243-13e06b933124}, !- Handle
  Evaporative Fluid Cooler Single Speed 1, !- Name
  ,                                       !- Water Inlet Node Name
  ,                                       !- Water Outlet Node Name
  autosize,                               !- Design Air Flow Rate {m3/s}
  autosize,                               !- Fan Power at Design Air Flow Rate {W}
  0.03,                                   !- Design Spray Water Flow Rate {m3/s}
  StandardDesignCapacity,                 !- Performance Input Method
  ,                                       !- Outdoor Air Inlet Node Name
  1.25,                                   !- Heat Rejection Capacity and Nominal Capacity Sizing Ratio
  123,                                    !- Standard Design Capacity {W}
  autosize,                               !- U-factor Times Area Value at Design Air Flow Rate {W/K}
  autosize,                               !- Design Water Flow Rate {m3/s}
  ,                                       !- User Specified Design Capacity {W}
  Autosize,                               !- Design Entering Water Temperature {C}
  35,                                     !- Design Entering Air Temperature {C}
  26.6,                                   !- Design Entering Air Wet-bulb Temperature {C}
  FanCycling,                             !- Capacity Control
  1,                                      !- Sizing Factor
  SaturatedExit,                          !- Evaporation Loss Mode
  ,                                       !- Evaporation Loss Factor {percent/K}
  0.008,                                  !- Drift Loss Percent {percent}
  ConcentrationRatio,                     !- Blowdown Calculation Mode
  3,                                      !- Blowdown Concentration Ratio
  ,                                       !- Blowdown Makeup Water Usage Schedule Name
  ;                                       !- Supply Water Storage Tank Name

OS:EvaporativeFluidCooler:TwoSpeed,
  {759db72b-1868-40fa-a801-2adeff3ff805}, !- Handle
  Evaporative Fluid Cooler Two Speed 1,   !- Name
  ,                                       !- Water Inlet Node Name
  ,                                       !- Water Outlet Node Name
  autosize,                               !- High Fan Speed Air Flow Rate {m3/s}
  autosize,                               !- High Fan Speed Fan Power {W}
  autosize,                               !- Low Fan Speed Air Flow Rate {m3/s}
  0.5,                                    !- Low Fan Speed Air Flow Rate Sizing Factor
  autosize,                               !- Low Fan Speed Fan Power {W}
  0.5,                                    !- Low Fan Speed Fan Power Sizing Factor
  0.002208,                               !- Design Spray Water Flow Rate {m3/s}
  UFactorTimesAreaAndDesignWaterFlowRate, !- Performance Input Method
  ,                                       !- Outdoor Air Inlet Node Name
  1.25,                                   !- Heat Rejection Capacity and Nominal Capacity Sizing Ratio
  ,                                       !- High Speed Standard Design Capacity {W}
  autosize,                               !- Low Speed Standard Design Capacity {W}
  0.5,                                    !- Low Speed Standard Capacity Sizing Factor
  autosize,                               !- High Fan Speed U-factor Times Area Value {W/K}
  autosize,                               !- Low Fan Speed U-factor Times Area Value {W/K}
  0.6,                                    !- Low Fan Speed U-Factor Times Area Sizing Factor
  autosize,                               !- Design Water Flow Rate {m3/s}
  ,                                       !- High Speed User Specified Design Capacity {W}
  autosize,                               !- Low Speed User Specified Design Capacity {W}
  0.5,                                    !- Low Speed User Specified Design Capacity Sizing Factor
  150,                                    !- Design Entering Water Temperature {C}
  35,                                     !- Design Entering Air Temperature {C}
  25.6,                                   !- Design Entering Air Wet-bulb Temperature {C}
  1,                                      !- High Speed Sizing Factor
  SaturatedExit,                          !- Evaporation Loss Mode
  ,                                       !- Evaporation Loss Factor {percent/K}
  0.008,                                  !- Drift Loss Percent {percent}
  ConcentrationRatio,                     !- Blowdown Calculation Mode
  3,                                      !- Blowdown Concentration Ratio
  ;                                       !- Blowdown Makeup Water Usage Schedule Name
